Version 4.1
SHEET 1 1024 680
WIRE 112 16 112 0
WIRE 480 32 384 32
WIRE 544 32 480 32
WIRE 560 32 544 32
WIRE 624 32 624 16
WIRE 320 48 272 48
WIRE 480 48 480 32
WIRE 544 48 544 32
WIRE 416 64 384 64
WIRE 416 80 416 64
WIRE 352 96 352 80
WIRE 352 96 112 96
WIRE 112 112 112 96
WIRE 272 144 272 48
WIRE 480 144 480 128
WIRE 480 144 272 144
WIRE 544 144 544 112
WIRE 544 144 480 144
WIRE 112 208 112 192
WIRE 304 208 112 208
WIRE 112 224 112 208
WIRE 416 224 368 224
WIRE 544 224 496 224
WIRE 640 224 608 224
WIRE 272 240 272 144
WIRE 304 240 272 240
WIRE 112 320 112 304
WIRE 304 320 112 320
WIRE 112 336 112 320
WIRE 416 336 368 336
WIRE 544 336 496 336
WIRE 640 336 640 224
WIRE 640 336 608 336
WIRE 272 352 272 240
WIRE 304 352 272 352
WIRE 112 432 112 416
WIRE 304 432 112 432
WIRE 112 448 112 432
WIRE 416 448 368 448
WIRE 544 448 496 448
WIRE 640 448 640 336
WIRE 640 448 608 448
WIRE 272 464 272 352
WIRE 304 464 272 464
WIRE 640 512 640 448
FLAG 112 528 0
FLAG 640 512 0
FLAG 112 0 0
FLAG 624 16 0
FLAG 352 16 0
FLAG 416 80 0
SYMBOL voltage 112 112 R180
WINDOW 0 24 96 Left 2
WINDOW 3 24 16 Left 2
SYMATTR InstName V1
SYMATTR Value 5V
SYMBOL res 96 96 R0
SYMATTR InstName R1
SYMBOL res 96 208 R0
SYMATTR InstName R2
SYMBOL res 96 320 R0
SYMATTR InstName R3
SYMBOL res 96 432 R0
SYMATTR InstName R4
SYMBOL OpAmps\\opamp 336 160 R0
SYMATTR InstName U1
SYMBOL OpAmps\\opamp 336 272 R0
SYMATTR InstName U2
SYMBOL OpAmps\\opamp 336 384 R0
SYMATTR InstName U3
SYMBOL LED 544 240 R270
WINDOW 0 72 32 VTop 2
WINDOW 3 0 32 VBottom 2
SYMATTR InstName LED1
SYMBOL LED 544 352 R270
WINDOW 0 72 32 VTop 2
WINDOW 3 0 32 VBottom 2
SYMATTR InstName D2
SYMBOL LED 544 464 R270
WINDOW 0 72 32 VTop 2
WINDOW 3 0 32 VBottom 2
SYMATTR InstName D3
SYMBOL res 512 208 R90
WINDOW 0 0 56 VBottom 2
WINDOW 3 32 56 VTop 2
SYMATTR InstName R5
SYMBOL res 512 320 R90
WINDOW 0 0 56 VBottom 2
WINDOW 3 32 56 VTop 2
SYMATTR InstName R6
SYMBOL res 512 432 R90
WINDOW 0 0 56 VBottom 2
WINDOW 3 32 56 VTop 2
SYMATTR InstName R7
SYMBOL res 464 32 R0
SYMATTR InstName R8
SYMBOL cap 528 48 R0
SYMATTR InstName C1
SYMBOL diode 624 16 R90
WINDOW 0 0 32 VBottom 2
WINDOW 3 32 32 VTop 2
SYMATTR InstName BPW34
SYMBOL OpAmps\\opamp2 352 112 R180
SYMATTR InstName U4
