Version 4.1
SHEET 1 1024 848
WIRE 416 32 416 16
WIRE 416 32 384 32
WIRE 480 32 448 32
WIRE 544 32 480 32
WIRE 560 32 544 32
WIRE 320 48 272 48
WIRE 480 48 480 32
WIRE 544 48 544 32
WIRE 448 64 448 32
WIRE 448 64 384 64
WIRE 176 112 176 96
WIRE 192 112 176 112
WIRE 176 128 176 112
WIRE 272 144 272 48
WIRE 480 144 480 128
WIRE 480 144 272 144
WIRE 544 144 544 112
WIRE 544 144 480 144
WIRE 176 224 176 208
WIRE 336 224 176 224
WIRE 176 240 176 224
WIRE 448 240 400 240
WIRE 544 240 528 240
WIRE 640 240 608 240
WIRE 272 256 272 144
WIRE 336 256 272 256
WIRE 176 336 176 320
WIRE 336 336 176 336
WIRE 176 352 176 336
WIRE 448 352 400 352
WIRE 544 352 528 352
WIRE 640 352 640 240
WIRE 640 352 608 352
WIRE 272 368 272 256
WIRE 336 368 272 368
WIRE 176 448 176 432
WIRE 336 448 176 448
WIRE 176 464 176 448
WIRE 448 464 400 464
WIRE 544 464 528 464
WIRE 640 464 640 352
WIRE 640 464 608 464
WIRE 272 480 272 368
WIRE 336 480 272 480
WIRE 640 512 640 464
FLAG 352 16 0
FLAG 416 16 0
FLAG 176 16 0
FLAG 640 32 0
FLAG 176 544 0
FLAG 640 512 0
FLAG 368 272 0
FLAG 368 208 VIN
FLAG 192 112 VIN
FLAG 368 384 0
FLAG 368 320 VIN
FLAG 368 496 0
FLAG 368 432 VIN
FLAG 352 80 VIN
SYMBOL res 464 32 R0
SYMATTR InstName R8
SYMATTR Value 100k
SYMBOL cap 528 48 R0
SYMATTR InstName C1
SYMATTR Value 22pF
SYMBOL voltage 176 112 R180
WINDOW 0 24 96 Left 2
WINDOW 3 24 16 Left 2
SYMATTR InstName V1
SYMATTR Value 5V
SYMBOL current 560 32 R270
WINDOW 0 -32 40 VBottom 2
WINDOW 3 32 40 VTop 2
WINDOW 123 0 0 Left 0
WINDOW 39 0 0 Left 0
SYMATTR InstName I1
SYMATTR Value 22.5µA
SYMBOL res 160 112 R0
SYMATTR InstName R1
SYMATTR Value 3.3k
SYMBOL res 160 224 R0
SYMATTR InstName R2
SYMATTR Value 2k
SYMBOL res 160 336 R0
SYMATTR InstName R3
SYMATTR Value 1.87k
SYMBOL res 160 448 R0
SYMATTR InstName R4
SYMATTR Value 2.8k
SYMBOL res 544 224 R90
WINDOW 0 0 56 VBottom 2
WINDOW 3 32 56 VTop 2
SYMATTR InstName R5
SYMATTR Value 47k
SYMBOL res 544 336 R90
WINDOW 0 0 56 VBottom 2
WINDOW 3 32 56 VTop 2
SYMATTR InstName R6
SYMATTR Value 47k
SYMBOL res 544 448 R90
WINDOW 0 0 56 VBottom 2
WINDOW 3 32 56 VTop 2
SYMATTR InstName R7
SYMATTR Value 47k
SYMBOL LED 544 480 R270
WINDOW 0 72 32 VTop 2
WINDOW 3 0 32 VBottom 2
SYMATTR InstName D1
SYMATTR Value 1N914
SYMBOL LED 544 368 R270
WINDOW 0 72 32 VTop 2
WINDOW 3 0 32 VBottom 2
SYMATTR InstName D2
SYMATTR Value 1N914
SYMBOL LED 544 256 R270
WINDOW 0 72 32 VTop 2
WINDOW 3 0 32 VBottom 2
SYMATTR InstName D3
SYMATTR Value 1N914
SYMBOL OpAmps\\UniversalOpAmp2 352 48 R180
SYMATTR InstName U1
SYMBOL OpAmps\\UniversalOpAmp2 368 240 R0
SYMATTR InstName U2
SYMBOL OpAmps\\UniversalOpAmp2 368 352 R0
SYMATTR InstName U3
SYMBOL OpAmps\\UniversalOpAmp2 368 464 R0
SYMATTR InstName U4
TEXT 160 584 Left 2 !.dc I1 0uA 30uA 0.5uA
TEXT 160 608 Left 2 !.lib opamp.sub
