Version 4.1
SHEET 1 880 680
WIRE 112 96 64 96
WIRE 112 112 112 96
WIRE 112 208 112 192
WIRE 304 208 112 208
WIRE 112 224 112 208
WIRE 272 240 272 96
WIRE 304 240 272 240
WIRE 112 320 112 304
WIRE 304 320 112 320
WIRE 112 336 112 320
WIRE 272 352 272 240
WIRE 304 352 272 352
WIRE 112 432 112 416
WIRE 304 432 112 432
WIRE 112 448 112 432
WIRE 272 464 272 352
WIRE 304 464 272 464
WIRE 0 0 0 0
FLAG -16 96 0
FLAG 112 528 0
SYMBOL voltage 80 96 R90
WINDOW 0 -32 56 VBottom 2
WINDOW 3 32 56 VTop 2
SYMATTR InstName V1
SYMBOL res 96 96 R0
SYMATTR InstName R1
SYMBOL res 96 208 R0
SYMATTR InstName R2
SYMBOL res 96 320 R0
SYMATTR InstName R3
SYMBOL res 96 432 R0
SYMATTR InstName R4
SYMBOL OpAmps\\opamp 336 160 R0
SYMATTR InstName U1
SYMBOL OpAmps\\opamp 336 272 R0
SYMATTR InstName U2
SYMBOL OpAmps\\opamp 336 384 R0
SYMATTR InstName U3
