Version 4.1
SHEET 1 880 680
WIRE 16 -48 -80 -48
WIRE -80 -16 -80 -48
WIRE 16 0 16 -48
WIRE 16 112 16 80
WIRE 16 112 -16 112
WIRE 80 112 16 112
WIRE 192 112 144 112
WIRE 192 160 192 112
WIRE 240 160 192 160
WIRE 16 208 -16 208
WIRE 80 208 16 208
WIRE 192 208 192 160
WIRE 192 208 144 208
WIRE 16 240 16 208
WIRE 16 240 -64 240
WIRE 192 256 192 208
WIRE 192 368 192 336
FLAG -80 -16 0
FLAG 192 368 0
FLAG 240 160 OUT
FLAG -16 208 A
FLAG -16 112 B
FLAG -64 320 0
SYMBOL voltage 16 96 R180
WINDOW 123 0 0 Left 0
WINDOW 39 0 0 Left 0
SYMATTR InstName V1
SYMATTR Value PULSE(0 5 0 0 0 0.25 1)
SYMBOL diode 80 128 R270
WINDOW 0 32 32 VTop 2
WINDOW 3 0 32 VBottom 2
SYMATTR InstName D1
SYMATTR Value 1N4148
SYMBOL diode 80 224 R270
WINDOW 0 32 32 VTop 2
WINDOW 3 0 32 VBottom 2
SYMATTR InstName D2
SYMATTR Value 1N4148
SYMBOL res 176 240 R0
SYMATTR InstName R1
SYMATTR Value 10k
SYMBOL voltage -64 224 R0
WINDOW 123 0 0 Left 0
WINDOW 39 0 0 Left 0
SYMATTR InstName V2
SYMATTR Value 0
TEXT -56 392 Left 2 !.tran 5s
