Version 4.1
SHEET 1 880 680
WIRE -400 -144 -400 -176
WIRE -400 -32 -400 -64
WIRE 16 32 16 0
WIRE 16 32 -128 32
WIRE 80 32 16 32
WIRE 192 32 144 32
WIRE -64 96 -64 -96
WIRE -128 128 -128 112
WIRE 192 160 192 32
WIRE 240 160 192 160
WIRE -96 208 -176 208
WIRE -64 208 -64 176
WIRE -64 208 -96 208
WIRE 80 208 -64 208
WIRE 192 208 192 160
WIRE 192 208 144 208
WIRE -96 224 -96 208
WIRE -432 256 -480 256
WIRE -352 256 -432 256
WIRE -240 256 -272 256
WIRE 192 256 192 208
WIRE -432 304 -432 256
WIRE -176 368 -176 304
WIRE 0 368 -176 368
WIRE 192 368 192 336
WIRE 192 368 0 368
WIRE 0 416 0 368
FLAG 0 416 0
FLAG 240 160 OUT
FLAG -480 256 A
FLAG 16 0 B
FLAG -432 384 0
FLAG -128 128 0
FLAG -400 -32 0
FLAG -400 -176 Vcc
FLAG -64 -96 Vcc
FLAG -96 224 SW
SYMBOL voltage -128 16 R0
WINDOW 123 0 0 Left 0
WINDOW 39 0 0 Left 0
WINDOW 0 -45 12 Left 2
WINDOW 3 -308 53 Left 2
SYMATTR InstName V1
SYMATTR Value PULSE(0 5 0 0 0 0.5 2)
SYMBOL diode 80 48 R270
WINDOW 0 32 32 VTop 2
WINDOW 3 0 32 VBottom 2
SYMATTR InstName D1
SYMATTR Value 1N4148
SYMBOL diode 80 224 R270
WINDOW 0 32 32 VTop 2
WINDOW 3 0 32 VBottom 2
SYMATTR InstName D2
SYMATTR Value 1N4148
SYMBOL res 176 240 R0
SYMATTR InstName R1
SYMATTR Value 10k
SYMBOL voltage -432 288 R0
WINDOW 123 0 0 Left 0
WINDOW 39 0 0 Left 0
SYMATTR InstName V2
SYMATTR Value PULSE(0 5 0 0 0 0.5 3)
SYMBOL npn -240 208 R0
SYMATTR InstName Q1
SYMBOL voltage -400 -160 R0
WINDOW 123 0 0 Left 0
WINDOW 39 0 0 Left 0
SYMATTR InstName V3
SYMATTR Value 4.81
SYMBOL res -256 240 R90
WINDOW 0 0 56 VBottom 2
WINDOW 3 32 56 VTop 2
SYMATTR InstName R2
SYMATTR Value 10k
SYMBOL res -80 80 R0
SYMATTR InstName R3
SYMATTR Value 100
TEXT -200 504 Left 2 !.tran 5s
