Version 4.1
SHEET 1 884 680
WIRE 672 -64 608 -64
WIRE 768 -64 672 -64
WIRE 672 -32 672 -64
WIRE 768 32 768 -64
WIRE 576 80 528 80
WIRE 672 80 672 48
WIRE 672 80 656 80
WIRE 704 80 672 80
WIRE 528 144 528 80
WIRE 768 144 768 128
WIRE 816 144 768 144
WIRE 768 160 768 144
FLAG -240 48 0
FLAG -240 -32 Vcc
FLAG 608 -64 Vcc
FLAG 816 144 OUT
FLAG 528 224 0
FLAG 768 240 0
SYMBOL voltage -240 -48 R0
WINDOW 123 0 0 Left 0
WINDOW 39 0 0 Left 0
SYMATTR InstName V2
SYMATTR Value 5
SYMBOL voltage 528 128 R0
WINDOW 3 -142 138 Left 2
WINDOW 123 0 0 Left 0
WINDOW 39 0 0 Left 0
SYMATTR InstName V3
SYMATTR Value PULSE(0 4 0 0 0 0.2 1)
SYMBOL pnp 704 128 M180
SYMATTR InstName Q2
SYMBOL res 672 64 R90
WINDOW 0 0 56 VBottom 2
WINDOW 3 32 56 VTop 2
SYMATTR InstName R3
SYMATTR Value 1k
SYMBOL res 784 256 R180
WINDOW 0 36 76 Left 2
WINDOW 3 36 40 Left 2
SYMATTR InstName R4
SYMATTR Value 1k
SYMBOL res 656 -48 R0
SYMATTR InstName R5
SYMATTR Value 1k
TEXT -72 320 Left 2 !.tran 3
