Version 4.1
SHEET 1 1160 752
WIRE -208 -176 -208 -240
WIRE -208 -176 -352 -176
WIRE -96 -176 -208 -176
WIRE 320 -176 -96 -176
WIRE 320 -160 320 -176
WIRE -352 -64 -352 -176
WIRE 320 -64 320 -80
WIRE 320 -64 272 -64
WIRE 448 -64 320 -64
WIRE -544 -48 -544 -112
WIRE 272 -32 272 -64
WIRE 0 16 0 -32
WIRE 112 16 0 16
WIRE 208 16 192 16
WIRE -96 48 -96 -176
WIRE 0 48 0 16
WIRE -544 64 -544 32
WIRE 368 64 272 64
WIRE 320 160 320 -64
WIRE 320 160 272 160
WIRE -96 208 -96 128
WIRE 64 208 -96 208
WIRE 208 208 144 208
WIRE -496 256 -688 256
WIRE -352 256 -352 16
WIRE -352 256 -416 256
WIRE -304 256 -304 192
WIRE -304 256 -352 256
WIRE -256 256 -304 256
WIRE -160 256 -176 256
WIRE -688 288 -688 256
WIRE 272 288 272 256
WIRE 368 288 368 64
WIRE 368 288 272 288
WIRE -480 304 -544 304
WIRE -544 336 -544 304
WIRE -432 352 -432 304
WIRE -544 448 -544 416
WIRE -96 496 -96 304
WIRE 272 496 272 288
WIRE 272 496 -96 496
WIRE -96 544 -96 496
FLAG 0 128 0
FLAG -544 448 0
FLAG -688 -112 0
FLAG -688 -192 Vcc
FLAG -208 -240 Vcc
FLAG 448 -64 OUT
FLAG 0 -32 A
FLAG -96 544 0
FLAG -432 352 0
FLAG -688 288 0
FLAG -304 192 B
FLAG -544 64 0
FLAG -544 -112 NOISE
SYMBOL voltage 0 32 R0
WINDOW 123 0 0 Left 0
WINDOW 39 0 0 Left 0
WINDOW 0 35 54 Left 2
SYMATTR InstName V1
SYMATTR Value PULSE(0 5 0 1u 1u 10m 20m)
SYMBOL voltage -544 320 R0
WINDOW 123 0 0 Left 0
WINDOW 39 0 0 Left 0
WINDOW 3 -45 94 Left 2
SYMATTR Value PULSE(5 0 0 1u 1u 5m 10m)
SYMATTR InstName V2
SYMBOL npn 208 -32 R0
SYMATTR InstName Q1
SYMATTR Value 2N3904
SYMBOL npn 208 160 R0
SYMATTR InstName Q2
SYMATTR Value 2N3904
SYMBOL res 160 192 R90
WINDOW 0 0 56 VBottom 2
WINDOW 3 32 56 VTop 2
SYMATTR InstName R2
SYMATTR Value 33k
SYMBOL voltage -688 -208 R0
WINDOW 123 0 0 Left 0
WINDOW 39 0 0 Left 0
SYMATTR InstName V3
SYMATTR Value 5
SYMBOL res 304 -176 R0
SYMATTR InstName R3
SYMATTR Value 4.7k
SYMBOL npn -160 208 R0
SYMATTR InstName Q3
SYMATTR Value 2N3904
SYMBOL sw -400 256 M270
SYMATTR InstName S1
SYMATTR Value S1
SYMBOL res -112 32 R0
SYMATTR InstName R5
SYMATTR Value 4.7k
SYMBOL res -368 -80 R0
SYMATTR InstName R6
SYMATTR Value 10k
SYMBOL res 208 0 R90
WINDOW 0 0 56 VBottom 2
WINDOW 3 32 56 VTop 2
SYMATTR InstName R9
SYMATTR Value 33k
SYMBOL res -160 240 R90
WINDOW 0 0 56 VBottom 2
WINDOW 3 32 56 VTop 2
SYMATTR InstName R10
SYMATTR Value 33k
SYMBOL voltage -544 -64 R0
WINDOW 123 0 0 Left 0
WINDOW 39 0 0 Left 0
SYMATTR InstName V4
SYMATTR Value SINE(0 0.02 5k)
TEXT -416 648 Left 2 !.tran 0 40m 0 10u
TEXT -424 584 Left 2 !.model S1 SW()
TEXT -408 696 Left 2 ;.dc V1 0 7 100m
TEXT -456 736 Left 2 ;.noise OUT V4 oct 100 1 5k
