Version 4.1
SHEET 1 1160 680
WIRE -208 -176 -208 -240
WIRE -208 -176 -496 -176
WIRE -96 -176 -208 -176
WIRE 320 -176 -96 -176
WIRE 320 -160 320 -176
WIRE 320 -64 320 -80
WIRE 320 -64 272 -64
WIRE 448 -64 320 -64
WIRE 272 -32 272 -64
WIRE 64 16 0 16
WIRE 208 16 144 16
WIRE -96 48 -96 -176
WIRE 0 48 0 16
WIRE 368 64 272 64
WIRE 320 160 320 -64
WIRE 320 160 272 160
WIRE -96 208 -96 128
WIRE 64 208 -96 208
WIRE 208 208 144 208
WIRE -496 256 -496 -176
WIRE -400 256 -496 256
WIRE -272 256 -320 256
WIRE -160 256 -192 256
WIRE 272 288 272 256
WIRE 368 288 368 64
WIRE 368 288 272 288
WIRE -448 304 -480 304
WIRE -384 304 -448 304
WIRE -448 336 -448 304
WIRE -336 352 -336 304
WIRE -448 448 -448 416
WIRE -96 496 -96 304
WIRE 272 496 272 288
WIRE 272 496 -96 496
WIRE -96 544 -96 496
FLAG 0 128 0
FLAG -448 448 0
FLAG -688 -112 0
FLAG -688 -192 Vcc
FLAG -208 -240 Vcc
FLAG 448 -64 OUT
FLAG 0 16 A
FLAG -480 304 B
FLAG -96 544 0
FLAG -336 352 0
SYMBOL voltage 0 32 R0
WINDOW 123 0 0 Left 0
WINDOW 39 0 0 Left 0
SYMATTR InstName V1
SYMATTR Value 5
SYMBOL voltage -448 320 R0
WINDOW 123 0 0 Left 0
WINDOW 39 0 0 Left 0
WINDOW 3 -146 99 Left 2
SYMATTR Value PULSE(1 0 0 .5m .5m 50m 100m)
SYMATTR InstName V2
SYMBOL npn 208 -32 R0
SYMATTR InstName Q1
SYMATTR Value 2N3904
SYMBOL npn 208 160 R0
SYMATTR InstName Q2
SYMATTR Value 2N3904
SYMBOL res 160 0 R90
WINDOW 0 0 56 VBottom 2
WINDOW 3 32 56 VTop 2
SYMATTR InstName R1
SYMATTR Value 1k
SYMBOL res 160 192 R90
WINDOW 0 0 56 VBottom 2
WINDOW 3 32 56 VTop 2
SYMATTR InstName R2
SYMATTR Value 1k
SYMBOL voltage -688 -208 R0
WINDOW 123 0 0 Left 0
WINDOW 39 0 0 Left 0
SYMATTR InstName V3
SYMATTR Value 5
SYMBOL res 304 -176 R0
SYMATTR InstName R3
SYMATTR Value 1k
SYMBOL npn -160 208 R0
SYMATTR InstName Q3
SYMATTR Value 2N3904
SYMBOL sw -304 256 M270
SYMATTR InstName S1
SYMATTR Value S1
SYMBOL res -176 240 R90
WINDOW 0 0 56 VBottom 2
WINDOW 3 32 56 VTop 2
SYMATTR InstName R4
SYMATTR Value 4.7k
SYMBOL res -112 32 R0
SYMATTR InstName R5
SYMATTR Value 1k
TEXT -416 648 Left 2 !.tran 0 1 0 startup
TEXT -424 584 Left 2 !.model S1 SW()
