Version 4.1
SHEET 1 1160 680
WIRE -208 -176 -208 -240
WIRE -96 -176 -208 -176
WIRE 320 -176 -96 -176
WIRE 320 -160 320 -176
WIRE 320 -64 320 -80
WIRE 320 -64 272 -64
WIRE 448 -64 320 -64
WIRE 272 -32 272 -64
WIRE 64 16 0 16
WIRE 208 16 144 16
WIRE 0 48 0 16
WIRE 368 64 272 64
WIRE 320 160 320 -64
WIRE 320 160 272 160
WIRE -96 208 -96 -176
WIRE 64 208 -32 208
WIRE 208 208 144 208
WIRE -320 256 -352 256
WIRE -240 256 -320 256
WIRE -320 288 -320 256
WIRE 272 288 272 256
WIRE 368 288 368 64
WIRE 368 288 272 288
WIRE -96 320 -96 304
WIRE -32 320 -32 208
WIRE -32 320 -96 320
WIRE -96 352 -96 320
WIRE -96 496 -96 432
WIRE 272 496 272 288
WIRE 272 496 -96 496
WIRE -96 544 -96 496
FLAG 0 128 0
FLAG -320 368 0
FLAG -592 -160 0
FLAG -592 -240 Vcc
FLAG -208 -240 Vcc
FLAG 448 -64 OUT
FLAG 0 16 A
FLAG -352 256 B
FLAG -96 544 0
SYMBOL voltage 0 32 R0
WINDOW 123 0 0 Left 0
WINDOW 39 0 0 Left 0
SYMATTR InstName V1
SYMATTR Value 0
SYMBOL voltage -320 272 R0
WINDOW 123 0 0 Left 0
WINDOW 39 0 0 Left 0
WINDOW 3 -189 136 Left 2
SYMATTR InstName V2
SYMATTR Value PULSE(0 5 0 0 0 0.2 1)
SYMBOL npn 208 -32 R0
SYMATTR InstName Q1
SYMATTR Value 2N3904
SYMBOL npn 208 160 R0
SYMATTR InstName Q2
SYMATTR Value 2N3904
SYMBOL res 160 0 R90
WINDOW 0 0 56 VBottom 2
WINDOW 3 32 56 VTop 2
SYMATTR InstName R1
SYMATTR Value 1k
SYMBOL res 160 192 R90
WINDOW 0 0 56 VBottom 2
WINDOW 3 32 56 VTop 2
SYMATTR InstName R2
SYMATTR Value 1k
SYMBOL voltage -592 -256 R0
WINDOW 123 0 0 Left 0
WINDOW 39 0 0 Left 0
SYMATTR InstName V3
SYMATTR Value 5
SYMBOL res 304 -176 R0
SYMATTR InstName R3
SYMATTR Value 1k
SYMBOL res -144 240 R90
WINDOW 0 0 56 VBottom 2
WINDOW 3 32 56 VTop 2
SYMATTR InstName R4
SYMATTR Value 1k
SYMBOL pnp -160 304 M180
WINDOW 0 50 36 Left 2
WINDOW 3 49 54 Left 2
SYMATTR InstName Q3
SYMBOL res -112 336 R0
SYMATTR InstName R6
SYMATTR Value 1k
TEXT -416 648 Left 2 !.tran 5
