Version 4.1
SHEET 1 880 680
WIRE 320 -160 320 -176
WIRE 320 -64 320 -80
WIRE 320 -64 272 -64
WIRE 448 -64 320 -64
WIRE 272 -32 272 -64
WIRE 64 16 0 16
WIRE 208 16 144 16
WIRE 0 48 0 16
WIRE 368 64 272 64
WIRE 320 160 320 -64
WIRE 320 160 272 160
WIRE 64 208 0 208
WIRE 208 208 144 208
WIRE 0 240 0 208
WIRE 272 288 272 256
WIRE 368 288 368 64
WIRE 368 288 272 288
WIRE 272 320 272 288
FLAG 0 128 0
FLAG 0 320 0
FLAG 272 320 0
FLAG 0 -112 0
FLAG 0 -192 Vcc
FLAG 320 -176 Vcc
FLAG 448 -64 OUT
FLAG 0 16 A
FLAG 0 208 B
SYMBOL voltage 0 32 R0
WINDOW 123 0 0 Left 0
WINDOW 39 0 0 Left 0
SYMATTR InstName V1
SYMATTR Value 0
SYMBOL voltage 0 224 R0
WINDOW 123 0 0 Left 0
WINDOW 39 0 0 Left 0
SYMATTR InstName V2
SYMATTR Value PULSE(0 5 0 0 0 0.2 1)
SYMBOL npn 208 -32 R0
SYMATTR InstName Q1
SYMATTR Value 2N3904
SYMBOL npn 208 160 R0
SYMATTR InstName Q2
SYMATTR Value 2N3904
SYMBOL res 160 0 R90
WINDOW 0 0 56 VBottom 2
WINDOW 3 32 56 VTop 2
SYMATTR InstName R1
SYMATTR Value 1k
SYMBOL res 160 192 R90
WINDOW 0 0 56 VBottom 2
WINDOW 3 32 56 VTop 2
SYMATTR InstName R2
SYMATTR Value 1k
SYMBOL voltage 0 -208 R0
WINDOW 123 0 0 Left 0
WINDOW 39 0 0 Left 0
SYMATTR InstName V3
SYMATTR Value 5
SYMBOL res 304 -176 R0
SYMATTR InstName R3
SYMATTR Value 1k
TEXT -48 400 Left 2 !.tran 5
